<additional>
    <poly id="sm_gba_0_0" type="building" color="0.7,0.8,0.9" fill="true" layer="1" geo="true" shape="-73.79977300159543,11.248156257617168 -73.79978024363417,11.248197113761663 -73.79981408937792,11.24819134263143 -73.79980684733918,11.248150486486153 -73.79977300159543,11.248156257617168" height="10.0"/>
    <poly id="sm_gba_1_0" type="building" color="0.7,0.8,0.9" fill="true" layer="1" geo="true" shape="-73.79934953413346,11.232998099438248 -73.79941410873397,11.233058542288674 -73.79946367535582,11.233007596871659 -73.79939910075531,11.232947154010546 -73.79934953413346,11.232998099438248" height="10.0"/>
    <poly id="sm_gba_2_0" type="building" color="0.7,0.8,0.9" fill="true" layer="1" geo="true" shape="-73.7981800074684,11.229517959509607 -73.7982116673997,11.22956838531529 -73.79828251483922,11.22952559540036 -73.79825085530294,11.229475164484938 -73.7981800074684,11.229517959509607" height="10.0"/>
    <poly id="sm_gba_3_0" type="building" color="0.7,0.8,0.9" fill="true" layer="1" geo="true" shape="-73.79785106127684,11.218005655337379 -73.79780834221346,11.218008494222005 -73.79781224873778,11.218064995758482 -73.79785496759932,11.218062153955088 -73.79785106127684,11.218005655337379" height="10.0"/>
    <poly id="sm_gba_4_0" type="building" color="0.7,0.8,0.9" fill="true" layer="1" geo="true" shape="-73.79736363712648,11.212904506692269 -73.79736672651151,11.212926221104652 -73.79741780621528,11.212919228615064 -73.79741471482096,11.212897510970578 -73.79736363712648,11.212904506692269" height="10.0"/>
    <poly id="sm_gba_5_0" type="building" color="0.7,0.8,0.9" fill="true" layer="1" geo="true" shape="-73.7992769019849,11.233078454434178 -73.79933933175577,11.233134823976656 -73.79940749446442,11.233062197853087 -73.79934506469354,11.233005828296399 -73.7992769019849,11.233078454434178" height="10.0"/>
    <poly id="sm_gba_6_0" type="building" color="0.7,0.8,0.9" fill="true" layer="1" geo="true" shape="-73.83620328873353,11.24592017514128 -73.8362111826526,11.245968929075673 -73.83628068619004,11.245958103525226 -73.83627279566447,11.245909349060469 -73.83620328873353,11.24592017514128" height="10.0"/>
    <poly id="sm_gba_7_0" type="building" color="0.7,0.8,0.9" fill="true" layer="1" geo="true" shape="-73.84064000944113,11.220103207598783 -73.84069081108375,11.220126277997409 -73.84072291959737,11.220058251084126 -73.84067211659918,11.220035183552127 -73.84064000944113,11.220103207598783" height="10.0"/>
    <poly id="sm_gba_8_0" type="building" color="0.7,0.8,0.9" fill="true" layer="1" geo="true" shape="-73.83640973247907,11.246684136946229 -73.836445480424,11.246671717708963 -73.83641762314736,11.246594582479446 -73.8363818752024,11.246607001720008 -73.83640973247907,11.246684136946229" height="10.0"/>
    <poly id="sm_gba_9_0" type="building" color="0.7,0.8,0.9" fill="true" layer="1" geo="true" shape="-73.92253493560185,11.276107514248551 -73.9224967931403,11.276096853699258 -73.92248581425612,11.276134623939967 -73.92252395850701,11.276145287606084 -73.92253493560185,11.276107514248551" height="10.0"/>
    <poly id="sm_gba_10_0" type="building" color="0.7,0.8,0.9" fill="true" layer="1" geo="true" shape="-73.8359701695169,11.262162919219065 -73.8359444109688,11.262126222273338 -73.83592257344208,11.26214096596243 -73.83594833127627,11.262177661889226 -73.8359701695169,11.262162919219065" height="10.0"/>
    <poly id="sm_gba_11_0" type="building" color="0.7,0.8,0.9" fill="true" layer="1" geo="true" shape="-73.84734736893317,11.251976914168523 -73.8474164105242,11.251946308041866 -73.84738563007969,11.251879527167745 -73.84731659030243,11.25191013723662 -73.84734736893317,11.251976914168523" height="10.0"/>
    <poly id="sm_gba_12_0" type="building" color="0.7,0.8,0.9" fill="true" layer="1" geo="true" shape="-73.85038505861733,11.258869783407633 -73.85039014725292,11.25890860060413 -73.85052207689375,11.258891964922142 -73.85051698825819,11.2588531477234 -73.85038505861733,11.258869783407633" height="10.0"/>
    <poly id="sm_gba_13_0" type="building" color="0.7,0.8,0.9" fill="true" layer="1" geo="true" shape="-73.856093536546,11.25205858465219 -73.85606019002111,11.252048579336645 -73.85604893517323,11.252084662207736 -73.85608228405273,11.252094668228494 -73.856093536546,11.25205858465219" height="10.0"/>
    <poly id="sm_gba_14_0" type="building" color="0.7,0.8,0.9" fill="true" layer="1" geo="true" shape="-73.83482852669383,11.249041314361904 -73.83483176076884,11.249095139453587 -73.83491333058637,11.249090424847097 -73.83491009234811,11.249036594396188 -73.83482852669383,11.249041314361904" height="10.0"/>
    <poly id="sm_gba_15_0" type="building" color="0.7,0.8,0.9" fill="true" layer="1" geo="true" shape="-73.84789741916576,11.251296874529075 -73.84790140010466,11.251359767957666 -73.84800026083542,11.251353748631317 -73.8479962798965,11.251290855201432 -73.84789741916576,11.251296874529075" height="10.0"/>
    <poly id="sm_gba_16_0" type="building" color="0.7,0.8,0.9" fill="true" layer="1" geo="true" shape="-73.87914120952098,11.280421390799845 -73.87923387032522,11.28038694539336 -73.87920631632842,11.280315646022274 -73.879113651075,11.28035009309123 -73.87914120952098,11.280421390799845" height="10.0"/>
    <poly id="sm_gba_17_0" type="building" color="0.7,0.8,0.9" fill="true" layer="1" geo="true" shape="-73.88082227919264,11.280940624524689 -73.88087693241827,11.280944878398785 -73.8808845414408,11.280850776650908 -73.88082989488895,11.280846523294855 -73.88082227919264,11.280940624524689" height="10.0"/>
    <poly id="sm_gba_18_0" type="building" color="0.7,0.8,0.9" fill="true" layer="1" geo="true" shape="-73.85631981872466,11.247732389732818 -73.85627640753175,11.247660148207572 -73.85622162289427,11.247691816778172 -73.85626503791312,11.247764056083838 -73.85631981872466,11.247732389732818" height="10.0"/>
    <poly id="sm_gba_19_0" type="building" color="0.7,0.8,0.9" fill="true" layer="1" geo="true" shape="-73.86986841031158,11.263788747106773 -73.8698529559404,11.263740941619233 -73.8698066487764,11.26375534048033 -73.8698221031476,11.263803145965483 -73.86986841031158,11.263788747106773" height="10.0"/>
    <poly id="sm_gba_20_0" type="building" color="0.7,0.8,0.9" fill="true" layer="1" geo="true" shape="-73.8471376164016,11.251776907337259 -73.84711255340724,11.251744332942465 -73.84707083382035,11.251775210232083 -73.84709589969971,11.251807785351701 -73.8471376164016,11.251776907337259" height="10.0"/>
    <poly id="sm_gba_21_0" type="building" color="0.7,0.8,0.9" fill="true" layer="1" geo="true" shape="-73.83632651567441,11.218068962443581 -73.83633274221148,11.218135678787505 -73.83636613344832,11.218132680379526 -73.83635990197818,11.218065962185904 -73.83632651567441,11.218068962443581" height="10.0"/>
    <poly id="sm_gba_22_0" type="building" color="0.7,0.8,0.9" fill="true" layer="1" geo="true" shape="-73.83649485108879,11.246140916719256 -73.83641914647269,11.246171457936669 -73.83643990589918,11.246220958572309 -73.83651561051532,11.246190417360154 -73.83649485108879,11.246140916719256" height="10.0"/>
    <poly id="sm_gba_23_0" type="building" color="0.7,0.8,0.9" fill="true" layer="1" geo="true" shape="-73.83712803683596,11.245658564885275 -73.83708959225305,11.24563284754457 -73.83706036510404,11.245674881582403 -73.8370988109394,11.245700597118088 -73.83712803683596,11.245658564885275" height="10.0"/>
    <poly id="sm_gba_24_0" type="building" color="0.7,0.8,0.9" fill="true" layer="1" geo="true" shape="-73.83052971662198,11.248157814469153 -73.83047789350303,11.248178408073116 -73.83049842736915,11.248228123399343 -73.83055025353555,11.24820752858794 -73.83052971662198,11.248157814469153" height="10.0"/>
    <poly id="sm_gba_25_0" type="building" color="0.7,0.8,0.9" fill="true" layer="1" geo="true" shape="-73.88437176516972,11.265574497208164 -73.88439499352681,11.265613955569265 -73.8844291920662,11.265594591892906 -73.88440596370909,11.265555133529162 -73.88437176516972,11.265574497208164" height="10.0"/>
    <poly id="sm_gba_26_0" type="building" color="0.7,0.8,0.9" fill="true" layer="1" geo="true" shape="-73.9163966402348,11.275970522375218 -73.9164674165471,11.275963896159041 -73.91646275569634,11.275916015838334 -73.91639197646687,11.275922647186846 -73.9163966402348,11.275970522375218" height="10.0"/>
    <poly id="sm_gba_27_0" type="building" color="0.7,0.8,0.9" fill="true" layer="1" geo="true" shape="-73.91386370800382,11.248363879869103 -73.91393024603887,11.24838328244671 -73.91395002862373,11.248318022547735 -73.91388349058873,11.248298619965695 -73.91386370800382,11.248363879869103" height="10.0"/>
    <poly id="sm_gba_28_0" type="building" color="0.7,0.8,0.9" fill="true" layer="1" geo="true" shape="-73.86304148098867,11.23411531697785 -73.8629794281032,11.234029656646584 -73.86293915441668,11.234057726639918 -73.86300121136367,11.234143384132082 -73.86304148098867,11.23411531697785" height="10.0"/>
    <poly id="sm_gba_29_0" type="building" color="0.7,0.8,0.9" fill="true" layer="1" geo="true" shape="-73.92277242673111,11.254263842042704 -73.92281592610455,11.254281512753408 -73.92283489154421,11.254236604422658 -73.92279139217081,11.254218933709211 -73.92277242673111,11.254263842042704" height="10.0"/>
    <poly id="sm_gba_30_0" type="building" color="0.7,0.8,0.9" fill="true" layer="1" geo="true" shape="-73.92253909278732,11.276440319013815 -73.92248162189658,11.276435029213303 -73.92247713348718,11.276481963811705 -73.92253460105762,11.276487253305746 -73.92253909278732,11.276440319013815" height="10.0"/>
    <poly id="sm_gba_31_0" type="building" color="0.7,0.8,0.9" fill="true" layer="1" geo="true" shape="-73.85586608456792,11.243458237943983 -73.85580511598056,11.243510913142146 -73.85586098982292,11.243573130337978 -73.85592196091018,11.243520452991305 -73.85586608456792,11.243458237943983" height="10.0"/>
    <poly id="sm_gba_32_0" type="building" color="0.7,0.8,0.9" fill="true" layer="1" geo="true" shape="-73.86791627613016,11.223117485215838 -73.86794303564983,11.22312589156266 -73.86795975846157,11.223074675147899 -73.86793299948592,11.22306626713349 -73.86791627613016,11.223117485215838" height="10.0"/>
    <poly id="sm_gba_33_0" type="building" color="0.7,0.8,0.9" fill="true" layer="1" geo="true" shape="-73.9239936143415,11.25491085209319 -73.92394978520187,11.254902217538586 -73.92394201708521,11.254940146574256 -73.92398584622484,11.254948781127723 -73.9239936143415,11.25491085209319" height="10.0"/>
    <poly id="sm_gba_34_0" type="building" color="0.7,0.8,0.9" fill="true" layer="1" geo="true" shape="-73.86414614621356,11.268597225692758 -73.86402814911717,11.26855259062485 -73.86401193883131,11.268593807742349 -73.86412993336724,11.268638441835293 -73.86414614621356,11.268597225692758" height="10.0"/>
    <poly id="sm_gba_35_0" type="building" color="0.7,0.8,0.9" fill="true" layer="1" geo="true" shape="-73.89494274862119,11.254879489508639 -73.89489980839627,11.254830552375935 -73.89485915153797,11.254864868075586 -73.89490208834957,11.254913805292347 -73.89494274862119,11.254879489508639" height="10.0"/>
    <poly id="sm_gba_36_0" type="building" color="0.7,0.8,0.9" fill="true" layer="1" geo="true" shape="-73.92547616948488,11.274934552556331 -73.92547152279816,11.2749047263909 -73.92539123860892,11.27491675592087 -73.925395882377,11.27494657701159 -73.92547616948488,11.274934552556331" height="10.0"/>
    <poly id="sm_gba_37_0" type="building" color="0.7,0.8,0.9" fill="true" layer="1" geo="true" shape="-73.90517843390533,11.238838580364742 -73.90518523617872,11.23887687971066 -73.90522688755443,11.238869763094982 -73.90522008528106,11.238831463748113 -73.90517843390533,11.238838580364742" height="10.0"/>
    <poly id="sm_gba_38_0" type="building" color="0.7,0.8,0.9" fill="true" layer="1" geo="true" shape="-73.88529990958082,11.26499463093289 -73.88532123489222,11.265060062463249 -73.88538207422397,11.265040990507217 -73.8853607476777,11.264975555183653 -73.88529990958082,11.26499463093289" height="10.0"/>
    <poly id="sm_gba_39_0" type="building" color="0.7,0.8,0.9" fill="true" layer="1" geo="true" shape="-73.84440789920527,11.206631757979736 -73.84448065129726,11.206662016137912 -73.84450234268333,11.20661183174596 -73.84442959242124,11.206581569348998 -73.84440789920527,11.206631757979736" height="10.0"/>
    <poly id="sm_gba_40_0" type="building" color="0.7,0.8,0.9" fill="true" layer="1" geo="true" shape="-73.84809548316315,11.226543369294419 -73.8481517709856,11.22654481448086 -73.84815331452597,11.226486974632877 -73.84809702670356,11.226485529446165 -73.84809548316315,11.226543369294419" height="10.0"/>
    <poly id="sm_gba_41_0" type="building" color="0.7,0.8,0.9" fill="true" layer="1" geo="true" shape="-73.86707434874626,11.234500193078006 -73.86708255965117,11.23453374099904 -73.86712567193766,11.234523586755316 -73.86711746171763,11.234490041631403 -73.86707434874626,11.234500193078006" height="10.0"/>
    <poly id="sm_gba_42_0" type="building" color="0.7,0.8,0.9" fill="true" layer="1" geo="true" shape="-73.92011084003968,11.276623444440673 -73.9200278850232,11.276627373187566 -73.92003318339543,11.276734969770487 -73.92011613841188,11.276731041025059 -73.92011084003968,11.276623444440673" height="10.0"/>
    <poly id="sm_gba_43_0" type="building" color="0.7,0.8,0.9" fill="true" layer="1" geo="true" shape="-73.89719011722406,11.28957010468045 -73.89715302205283,11.289510926698071 -73.89710630284323,11.289539089844098 -73.89714339801446,11.289598267820637 -73.89719011722406,11.28957010468045" height="10.0"/>
    <poly id="sm_gba_44_0" type="building" color="0.7,0.8,0.9" fill="true" layer="1" geo="true" shape="-73.85027748182239,11.243658482993538 -73.850220833568,11.243700153738217 -73.85023710667843,11.243721434772297 -73.85018389343925,11.243760582346752 -73.85021396711292,11.243799910950983 -73.85032383039419,11.243719094983788 -73.85027748182239,11.243658482993538" height="10.0"/>
    <poly id="sm_gba_45_0" type="building" color="0.7,0.8,0.9" fill="true" layer="1" geo="true" shape="-73.92013946696571,11.27548941513166 -73.92019790488324,11.275502936401992 -73.92021289117608,11.275440642950542 -73.92015445325855,11.27542712167731 -73.92013946696571,11.27548941513166" height="10.0"/>
    <poly id="sm_gba_46_0" type="building" color="0.7,0.8,0.9" fill="true" layer="1" geo="true" shape="-73.83006233422414,11.250404837357792 -73.83004178343461,11.250343010974163 -73.82997389666363,11.250364717314127 -73.82999444745315,11.25042654369308 -73.83006233422414,11.250404837357792" height="10.0"/>
    <poly id="sm_gba_47_0" type="building" color="0.7,0.8,0.9" fill="true" layer="1" geo="true" shape="-73.84949514052474,11.259694588810945 -73.84944161017273,11.259608069744516 -73.84933967049102,11.259668736438655 -73.84939320084305,11.259755255486866 -73.84949514052474,11.259694588810945" height="10.0"/>
    <poly id="sm_gba_48_0" type="building" color="0.7,0.8,0.9" fill="true" layer="1" geo="true" shape="-73.88283035660271,11.286398614520394 -73.8829017851888,11.286465622187862 -73.88295537662519,11.286410683184371 -73.88288394803907,11.286343675504057 -73.88283035660271,11.286398614520394" height="10.0"/>
    <poly id="sm_gba_49_0" type="building" color="0.7,0.8,0.9" fill="true" layer="1" geo="true" shape="-73.8947434850158,11.289081151429002 -73.89472220723376,11.288963867839328 -73.89456361049453,11.288991527225932 -73.89458240398515,11.289095117340807 -73.89468007164992,11.289078077332164 -73.89468255617234,11.289091777459575 -73.8947434850158,11.289081151429002" height="10.0"/>
    <poly id="sm_gba_50_0" type="building" color="0.7,0.8,0.9" fill="true" layer="1" geo="true" shape="-73.84094741702125,11.22263104052864 -73.84100021348829,11.222606788971916 -73.84095118905009,11.22250408831637 -73.84097538808123,11.222492974377403 -73.84095540010965,11.222451101824632 -73.84087840526189,11.222486468696559 -73.84094741702125,11.22263104052864" height="10.0"/>
    <poly id="sm_gba_51_0" type="building" color="0.7,0.8,0.9" fill="true" layer="1" geo="true" shape="-73.9226126365745,11.258376542490808 -73.92263301442344,11.258419953230202 -73.92269719504418,11.25839097394946 -73.92267681719524,11.258347563205689 -73.9226126365745,11.258376542490808" height="10.0"/>
    <poly id="sm_gba_52_0" type="building" color="0.7,0.8,0.9" fill="true" layer="1" geo="true" shape="-73.83628205855644,11.249317272511135 -73.83621983112367,11.249351453445712 -73.83624449483791,11.249394645738533 -73.8363067217809,11.249360469349611 -73.83628205855644,11.249317272511135" height="10.0"/>
    <poly id="sm_gba_53_0" type="building" color="0.7,0.8,0.9" fill="true" layer="1" geo="true" shape="-73.83694056497136,11.246512602621394 -73.83685941243209,11.246531710126035 -73.83688438051907,11.24663369014371 -73.83696553305836,11.246614582645805 -73.83694056497136,11.246512602621394" height="10.0"/>
    <poly id="sm_gba_54_0" type="building" color="0.7,0.8,0.9" fill="true" layer="1" geo="true" shape="-73.84038515597904,11.246327602809671 -73.84034652713667,11.246293603075202 -73.84030252876377,11.246341690528297 -73.84034115760613,11.246375690257125 -73.84038515597904,11.246327602809671" height="10.0"/>
    <poly id="sm_gba_55_0" type="building" color="0.7,0.8,0.9" fill="true" layer="1" geo="true" shape="-73.88190373695791,11.286055978980315 -73.88195041824086,11.286091700236028 -73.88200325130713,11.286025295388882 -73.88195656843963,11.285989576116464 -73.88190373695791,11.286055978980315" height="10.0"/>
    <poly id="sm_gba_56_0" type="building" color="0.7,0.8,0.9" fill="true" layer="1" geo="true" shape="-73.91291410998943,11.28231998066741 -73.91290884212114,11.28235874787444 -73.91295891490617,11.28236529155852 -73.91296418277445,11.282326524352357 -73.91291410998943,11.28231998066741" height="10.0"/>
    <poly id="sm_gba_57_0" type="building" color="0.7,0.8,0.9" fill="true" layer="1" geo="true" shape="-73.91468008789808,11.287307487957492 -73.91465920639861,11.287345362919027 -73.914722279038,11.287378804404682 -73.91474316029239,11.287340924988655 -73.91468008789808,11.287307487957492" height="10.0"/>
    <poly id="sm_gba_58_0" type="building" color="0.7,0.8,0.9" fill="true" layer="1" geo="true" shape="-73.84947072914201,11.252809000089485 -73.84944425646492,11.252866693736209 -73.84953347568535,11.252906072995444 -73.84955994602566,11.252848384449322 -73.84947072914201,11.252809000089485" height="10.0"/>
    <poly id="sm_gba_59_0" type="building" color="0.7,0.8,0.9" fill="true" layer="1" geo="true" shape="-73.89793773181937,11.291130247795891 -73.89790260911361,11.291107117918557 -73.89788083118607,11.291138919947755 -73.89791595502956,11.291162048161098 -73.89793773181937,11.291130247795891" height="10.0"/>
    <poly id="sm_gba_60_0" type="building" color="0.7,0.8,0.9" fill="true" layer="1" geo="true" shape="-73.85491406542734,11.252018993897309 -73.85498606756705,11.252024371314704 -73.8549893166371,11.251982523523552 -73.85491731449738,11.251977146105375 -73.85491406542734,11.252018993897309" height="10.0"/>
    <poly id="sm_gba_61_0" type="building" color="0.7,0.8,0.9" fill="true" layer="1" geo="true" shape="-73.8754267377543,11.248279176321688 -73.8753503796108,11.248268944798951 -73.87534174188512,11.248330923876324 -73.87541810002863,11.248341155396886 -73.8754267377543,11.248279176321688" height="10.0"/>
    <poly id="sm_gba_62_0" type="building" color="0.7,0.8,0.9" fill="true" layer="1" geo="true" shape="-73.90479208401322,11.220473754466752 -73.90474961756588,11.220478037137411 -73.90475534810655,11.220532708964953 -73.90479781455385,11.220528426295118 -73.90479208401322,11.220473754466752" height="10.0"/>
    <poly id="sm_gba_63_0" type="building" color="0.7,0.8,0.9" fill="true" layer="1" geo="true" shape="-73.90472380346014,11.22018558347267 -73.90468213741312,11.220169301965981 -73.90466310655528,11.220216151733695 -73.90470477159958,11.220232435706293 -73.90472380346014,11.22018558347267" height="10.0"/>
    <poly id="sm_gba_64_0" type="building" color="0.7,0.8,0.9" fill="true" layer="1" geo="true" shape="-73.88423600741825,11.239786297473785 -73.88419573008882,11.239770413154744 -73.88416509802792,11.239845147894442 -73.88420537076667,11.239861030398956 -73.88423600741825,11.239786297473785" height="10.0"/>
    <poly id="sm_gba_65_0" type="building" color="0.7,0.8,0.9" fill="true" layer="1" geo="true" shape="-73.84746596546229,11.251245636996714 -73.84747989575939,11.25131550485439 -73.84762973416662,11.2512867672815 -73.84761580189438,11.251216889510374 -73.84746596546229,11.251245636996714" height="10.0"/>
    <poly id="sm_gba_66_0" type="building" color="0.7,0.8,0.9" fill="true" layer="1" geo="true" shape="-73.8335156249316,11.249329075005804 -73.83356592181144,11.249346154950146 -73.83358084854305,11.2493038716173 -73.8335305516632,11.249286791670457 -73.8335156249316,11.249329075005804" height="10.0"/>
    <poly id="sm_gba_67_0" type="building" color="0.7,0.8,0.9" fill="true" layer="1" geo="true" shape="-73.85485524829974,11.24050055425343 -73.85479957373828,11.240494645673536 -73.85479068096434,11.24057525539267 -73.85484635552582,11.240581163970944 -73.85485524829974,11.24050055425343" height="10.0"/>
    <poly id="sm_gba_68_0" type="building" color="0.7,0.8,0.9" fill="true" layer="1" geo="true" shape="-73.86118767323367,11.267543248377109 -73.86116714485654,11.267490418976507 -73.86111327718842,11.267510551682477 -73.86113380556559,11.267563381079384 -73.86118767323367,11.267543248377109" height="10.0"/>
    <poly id="sm_gba_69_0" type="building" color="0.7,0.8,0.9" fill="true" layer="1" geo="true" shape="-73.90741054188898,11.282831572788481 -73.90733877017358,11.282856070453377 -73.90735708917386,11.282907685822863 -73.90742886088928,11.282883188162359 -73.90741054188898,11.282831572788481" height="10.0"/>
    <poly id="sm_gba_70_0" type="building" color="0.7,0.8,0.9" fill="true" layer="1" geo="true" shape="-73.85500197690601,11.252529722201132 -73.8550033182255,11.252488949178613 -73.85492025621522,11.25248632071417 -73.85491891470835,11.252527099432783 -73.85500197690601,11.252529722201132" height="10.0"/>
    <poly id="sm_gba_71_0" type="building" color="0.7,0.8,0.9" fill="true" layer="1" geo="true" shape="-73.83942447431959,11.24572863127159 -73.83938726252357,11.245725147064661 -73.8393821876466,11.245777286093244 -73.83941939944259,11.245780770299561 -73.83942447431959,11.24572863127159" height="10.0"/>
    <poly id="sm_gba_72_0" type="building" color="0.7,0.8,0.9" fill="true" layer="1" geo="true" shape="-73.89540701488349,11.25706248929582 -73.89536137418808,11.25703182777373 -73.89532886068686,11.257078380904233 -73.89537450138225,11.25710904242139 -73.89540701488349,11.25706248929582" height="10.0"/>
    <poly id="sm_gba_73_0" type="building" color="0.7,0.8,0.9" fill="true" layer="1" geo="true" shape="-73.90881313406835,11.279812731241677 -73.90873858096909,11.279758653812792 -73.90865908058949,11.279864072563953 -73.90873363368878,11.279918149973028 -73.90881313406835,11.279812731241677" height="10.0"/>
    <poly id="sm_gba_74_0" type="building" color="0.7,0.8,0.9" fill="true" layer="1" geo="true" shape="-73.92497074324251,11.211384887648862 -73.92490359445083,11.211267790095363 -73.92483100359117,11.211307848228344 -73.92489815655834,11.211424938478103 -73.92497074324251,11.211384887648862" height="10.0"/>
    <poly id="sm_gba_75_0" type="building" color="0.7,0.8,0.9" fill="true" layer="1" geo="true" shape="-73.89986450736471,11.284203728482638 -73.89981532472238,11.284160597273626 -73.89974468788594,11.284238060589402 -73.8997938705283,11.284281191786803 -73.89986450736471,11.284203728482638" height="10.0"/>
    <poly id="sm_gba_76_0" type="building" color="0.7,0.8,0.9" fill="true" layer="1" geo="true" shape="-73.92185318303234,11.276545461854312 -73.92184960287412,11.276485166445113 -73.92178647919414,11.276488771220045 -73.92179006364086,11.276549066383552 -73.92185318303234,11.276545461854312" height="10.0"/>
    <poly id="sm_gba_77_0" type="building" color="0.7,0.8,0.9" fill="true" layer="1" geo="true" shape="-73.86387207214894,11.238453586112215 -73.86385116662755,11.238489101981926 -73.86389944691844,11.23851644150946 -73.86392035243983,11.238480925643117 -73.86387207214894,11.238453586112215" height="10.0"/>
    <poly id="sm_gba_78_0" type="building" color="0.7,0.8,0.9" fill="true" layer="1" geo="true" shape="-73.87627909076784,11.27761374282889 -73.87623715954538,11.277628268346916 -73.87625400938396,11.277675039710957 -73.8762959376388,11.277660515223346 -73.87627909076784,11.27761374282889" height="10.0"/>
    <poly id="sm_gba_79_0" type="building" color="0.7,0.8,0.9" fill="true" layer="1" geo="true" shape="-73.88048987492633,11.28405144957452 -73.88045649630423,11.284128487055568 -73.8805255864899,11.28415728086074 -73.88055897150971,11.284080241311202 -73.88048987492633,11.28405144957452" height="10.0"/>
    <poly id="sm_gba_80_0" type="building" color="0.7,0.8,0.9" fill="true" layer="1" geo="true" shape="-73.88550914161092,11.239117434255789 -73.88555369438843,11.239130074605129 -73.88556514717408,11.239091231618886 -73.8855205943966,11.239078591267841 -73.88550914161092,11.239117434255789" height="10.0"/>
    <poly id="sm_gba_81_0" type="building" color="0.7,0.8,0.9" fill="true" layer="1" geo="true" shape="-73.89595000377876,11.261729076234758 -73.8959125119452,11.261767969399813 -73.89596774812641,11.261819184662471 -73.89600523995998,11.261780291504365 -73.89595000377876,11.261729076234758" height="10.0"/>
    <poly id="sm_gba_82_0" type="building" color="0.7,0.8,0.9" fill="true" layer="1" geo="true" shape="-73.90111146880054,11.246183721599763 -73.90112175362377,11.246228817925711 -73.90117795043562,11.246216488960101 -73.90116766561242,11.246171392632263 -73.90111146880054,11.246183721599763" height="10.0"/>
    <poly id="sm_gba_83_0" type="building" color="0.7,0.8,0.9" fill="true" layer="1" geo="true" shape="-73.83167422636726,11.226579565737126 -73.83160821560443,11.226599740463968 -73.83162768079096,11.226661015558904 -73.83169369024165,11.226640836705812 -73.83167422636726,11.226579565737126" height="10.0"/>
    <poly id="sm_gba_84_0" type="building" color="0.7,0.8,0.9" fill="true" layer="1" geo="true" shape="-73.89644145869273,11.288977434196738 -73.8964018646697,11.288916463308524 -73.8963645204286,11.288939785051426 -73.89640411873165,11.289000755824631 -73.89644145869273,11.288977434196738" height="10.0"/>
    <poly id="sm_gba_85_0" type="building" color="0.7,0.8,0.9" fill="true" layer="1" geo="true" shape="-73.88935133429993,11.262699758654875 -73.88925848984003,11.262709362664296 -73.88926352603187,11.262756191696823 -73.88935637049178,11.262746587688966 -73.88935133429993,11.262699758654875" height="10.0"/>
    <poly id="sm_gba_86_0" type="building" color="0.7,0.8,0.9" fill="true" layer="1" geo="true" shape="-73.89237464502864,11.261886964206496 -73.89243365362698,11.261886964206496 -73.89243365362698,11.261850136329102 -73.89237464502864,11.261850136329102 -73.89237464502864,11.261886964206496" height="10.0"/>
    <poly id="sm_gba_87_0" type="building" color="0.7,0.8,0.9" fill="true" layer="1" geo="true" shape="-73.84340731723098,11.20838459659035 -73.84335142992234,11.208403896100663 -73.84339764541261,11.208532644289434 -73.84345352454802,11.208513347610136 -73.84340731723098,11.20838459659035" height="10.0"/>
    <poly id="sm_gba_88_0" type="building" color="0.7,0.8,0.9" fill="true" layer="1" geo="true" shape="-73.92238969185885,11.278785911963666 -73.92238094318779,11.278728060666879 -73.92231008211593,11.278738366848543 -73.9223188315067,11.278796222902258 -73.92238969185885,11.278785911963666" height="10.0"/>
    <poly id="sm_gba_89_0" type="building" color="0.7,0.8,0.9" fill="true" layer="1" geo="true" shape="-73.83325902963544,11.226497202008247 -73.83325705773056,11.22655501677741 -73.83334011325317,11.226557742202331 -73.83334208515805,11.226499927433707 -73.83325902963544,11.226497202008247" height="10.0"/>
    <poly id="sm_gba_90_0" type="building" color="0.7,0.8,0.9" fill="true" layer="1" geo="true" shape="-73.86023868642077,11.244747175450783 -73.86022689195072,11.244788672899162 -73.86031548529112,11.244812895552755 -73.86032728250882,11.244771398859143 -73.86023868642077,11.244747175450783" height="10.0"/>
    <poly id="sm_gba_91_0" type="building" color="0.7,0.8,0.9" fill="true" layer="1" geo="true" shape="-73.91898163484628,11.228063604292018 -73.91897446422904,11.228104488261252 -73.91901354088394,11.228111082045459 -73.91902071150115,11.228070198077162 -73.91898163484628,11.228063604292018" height="10.0"/>
    <poly id="sm_gba_92_0" type="building" color="0.7,0.8,0.9" fill="true" layer="1" geo="true" shape="-73.8640300746096,11.222379261149854 -73.86403388481119,11.222415711128434 -73.86407900829882,11.22241117601898 -73.86407519809721,11.222374726039803 -73.8640300746096,11.222379261149854" height="10.0"/>
    <poly id="sm_gba_93_0" type="building" color="0.7,0.8,0.9" fill="true" layer="1" geo="true" shape="-73.88651236924385,11.28749694713541 -73.88649126848681,11.287555377180922 -73.88654225741259,11.287573085288159 -73.88656335446413,11.287514653959363 -73.88651236924385,11.28749694713541" height="10.0"/>
    <poly id="sm_gba_94_0" type="building" color="0.7,0.8,0.9" fill="true" layer="1" geo="true" shape="-73.86732089300055,11.26581568597183 -73.86730689346142,11.265733811501207 -73.86722080155434,11.265747970348244 -73.86723480109349,11.265829844814817 -73.86732089300055,11.26581568597183" height="10.0"/>
    <poly id="sm_gba_95_0" type="building" color="0.7,0.8,0.9" fill="true" layer="1" geo="true" shape="-73.86077931827721,11.240482995869968 -73.86077013366341,11.240402449882595 -73.86073456372914,11.240406351788536 -73.86074375401945,11.240486897152124 -73.86077931827721,11.240482995869968" height="10.0"/>