<additional>
    <poly id="sm_full_163503479" type="building" color="0.9,0.7,0.5" fill="true" layer="1" geo="true" shape="-73.8296251,11.2506661 -73.8290961,11.2508333 -73.8288557,11.2501017 -73.8293847,11.2499345 -73.8296251,11.2506661" height="15.3"/>
    <poly id="sm_full_163674567" type="building" color="0.9,0.7,0.5" fill="true" layer="1" geo="true" shape="-73.8381197,11.2467400 -73.8380363,11.2467223 -73.8380764,11.2465409 -73.8381597,11.2465586 -73.8381197,11.2467400" height="4.0"/>
    <poly id="sm_full_163674571" type="building" color="0.9,0.7,0.5" fill="true" layer="1" geo="true" shape="-73.8379378,11.2466886 -73.8379656,11.2465375 -73.8380736,11.2465565 -73.8380458,11.2467077 -73.8379378,11.2466886" height="4.4"/>
    <poly id="sm_full_163674576" type="building" color="0.9,0.7,0.5" fill="true" layer="1" geo="true" shape="-73.8404253,11.2461651 -73.8405101,11.2462120 -73.8404781,11.2462676 -73.8403933,11.2462208 -73.8404253,11.2461651" height="3.9"/>
    <poly id="sm_full_163674581" type="building" color="0.9,0.7,0.5" fill="true" layer="1" geo="true" shape="-73.8384680,11.2472263 -73.8386715,11.2474409 -73.8386264,11.2474802 -73.8385810,11.2474319 -73.8385568,11.2474533 -73.8383988,11.2472894 -73.8384680,11.2472263" height="4.9"/>
    <poly id="sm_full_163674586" type="building" color="0.9,0.7,0.5" fill="true" layer="1" geo="true" shape="-73.8410217,11.2457495 -73.8410664,11.2456603 -73.8411413,11.2456964 -73.8410966,11.2457855 -73.8410217,11.2457495" height="8.4"/>
    <poly id="sm_full_163674599" type="building" color="0.9,0.7,0.5" fill="true" layer="1" geo="true" shape="-73.8403251,11.2457963 -73.8402434,11.2457918 -73.8402472,11.2457266 -73.8403289,11.2457311 -73.8403251,11.2457963" height="3.5"/>
    <poly id="sm_full_179634974" type="building" color="0.9,0.7,0.5" fill="true" layer="1" geo="true" shape="-73.8709688,11.2796588 -73.8708214,11.2796013 -73.8708574,11.2795124 -73.8710049,11.2795699 -73.8709688,11.2796588" height="8.3"/>
    <poly id="sm_full_179634975" type="building" color="0.9,0.7,0.5" fill="true" layer="1" geo="true" shape="-73.8701227,11.2800261 -73.8701789,11.2798875 -73.8702720,11.2799238 -73.8702157,11.2800624 -73.8701227,11.2800261" height="29.9"/>
    <poly id="sm_full_179634977" type="building" color="0.9,0.7,0.5" fill="true" layer="1" geo="true" shape="-73.8698287,11.2799563 -73.8696792,11.2798980 -73.8697150,11.2798099 -73.8698645,11.2798682 -73.8698287,11.2799563" height="4.5"/>
    <poly id="sm_full_179634978" type="building" color="0.9,0.7,0.5" fill="true" layer="1" geo="true" shape="-73.8705540,11.2797797 -73.8704586,11.2797424 -73.8705161,11.2796007 -73.8706116,11.2796379 -73.8705540,11.2797797" height="5.3"/>
    <poly id="sm_full_179634979" type="building" color="0.9,0.7,0.5" fill="true" layer="1" geo="true" shape="-73.8707128,11.2801330 -73.8707704,11.2799912 -73.8708479,11.2800214 -73.8707904,11.2801633 -73.8707128,11.2801330" height="5.3"/>
    <poly id="sm_full_179634980" type="building" color="0.9,0.7,0.5" fill="true" layer="1" geo="true" shape="-73.8708527,11.2799029 -73.8707642,11.2798683 -73.8708219,11.2797262 -73.8709104,11.2797607 -73.8708527,11.2799029" height="4.4"/>
    <poly id="sm_full_179634983" type="building" color="0.9,0.7,0.5" fill="true" layer="1" geo="true" shape="-73.8703455,11.2799052 -73.8701992,11.2798481 -73.8702269,11.2797797 -73.8703732,11.2798368 -73.8703455,11.2799052" height="13.2"/>
    <poly id="sm_full_179634984" type="building" color="0.9,0.7,0.5" fill="true" layer="1" geo="true" shape="-73.8696486,11.2798820 -73.8695919,11.2798598 -73.8696225,11.2797843 -73.8696792,11.2798065 -73.8696486,11.2798820" height="25.5"/>
    <poly id="sm_full_179634987" type="building" color="0.9,0.7,0.5" fill="true" layer="1" geo="true" shape="-73.8703763,11.2801493 -73.8702374,11.2800951 -73.8702767,11.2799982 -73.8704156,11.2800524 -73.8703763,11.2801493" height="20.2"/>
    <poly id="sm_full_179634988" type="building" color="0.9,0.7,0.5" fill="true" layer="1" geo="true" shape="-73.8700207,11.2800121 -73.8698786,11.2799566 -73.8699117,11.2798750 -73.8700539,11.2799305 -73.8700207,11.2800121" height="8.9"/>
    <poly id="sm_full_179634989" type="building" color="0.9,0.7,0.5" fill="true" layer="1" geo="true" shape="-73.8707294,11.2798587 -73.8706303,11.2798200 -73.8706891,11.2796751 -73.8707883,11.2797138 -73.8707294,11.2798587" height="10.5"/>
    <poly id="sm_full_179634991" type="building" color="0.9,0.7,0.5" fill="true" layer="1" geo="true" shape="-73.8706986,11.2800540 -73.8705516,11.2799966 -73.8705849,11.2799145 -73.8707319,11.2799719 -73.8706986,11.2800540" height="4.2"/>
    <poly id="sm_full_179634992" type="building" color="0.9,0.7,0.5" fill="true" layer="1" geo="true" shape="-73.8700776,11.2798773 -73.8699932,11.2798444 -73.8700516,11.2797006 -73.8701359,11.2797336 -73.8700776,11.2798773" height="21.5"/>
    <poly id="sm_full_179634993" type="building" color="0.9,0.7,0.5" fill="true" layer="1" geo="true" shape="-73.8707389,11.2802934 -73.8706082,11.2802424 -73.8706441,11.2801539 -73.8707748,11.2802049 -73.8707389,11.2802934" height="11.8"/>
    <poly id="sm_full_179634999" type="building" color="0.9,0.7,0.5" fill="true" layer="1" geo="true" shape="-73.8699567,11.2798517 -73.8698666,11.2798166 -73.8699307,11.2796588 -73.8700208,11.2796940 -73.8699567,11.2798517" height="42.2"/>
    <poly id="sm_full_179635001" type="building" color="0.9,0.7,0.5" fill="true" layer="1" geo="true" shape="-73.8707934,11.2795844 -73.8706472,11.2795274 -73.8706844,11.2794357 -73.8708306,11.2794927 -73.8707934,11.2795844" height="9.2"/>
    <poly id="sm_full_179635005" type="building" color="0.9,0.7,0.5" fill="true" layer="1" geo="true" shape="-73.8705588,11.2802236 -73.8704789,11.2801925 -73.8705398,11.2800423 -73.8706197,11.2800735 -73.8705588,11.2802236" height="10.3"/>
    <poly id="sm_full_179635006" type="building" color="0.9,0.7,0.5" fill="true" layer="1" geo="true" shape="-73.8703478,11.2799819 -73.8704021,11.2798481 -73.8704948,11.2798843 -73.8704405,11.2800181 -73.8703478,11.2799819" height="12.9"/>
    <poly id="sm_full_179635007" type="building" color="0.9,0.7,0.5" fill="true" layer="1" geo="true" shape="-73.8703431,11.2797006 -73.8704034,11.2795520 -73.8704924,11.2795867 -73.8704321,11.2797354 -73.8703431,11.2797006" height="5.4"/>
    <poly id="sm_full_179635027" type="building" color="0.9,0.7,0.5" fill="true" layer="1" geo="true" shape="-73.8712177,11.2803329 -73.8709684,11.2802356 -73.8710139,11.2801237 -73.8712631,11.2802210 -73.8712177,11.2803329" height="6.6"/>
    <poly id="sm_full_347773090" type="building" color="0.9,0.7,0.5" fill="true" layer="1" geo="true" shape="-73.9169129,11.3040842 -73.9168224,11.3040822 -73.9168261,11.3039118 -73.9169166,11.3039137 -73.9169129,11.3040842" height="11.8"/>
    <poly id="sm_full_347773091" type="building" color="0.9,0.7,0.5" fill="true" layer="1" geo="true" shape="-73.9167844,11.3041064 -73.9166790,11.3041030 -73.9166827,11.3039906 -73.9167882,11.3039940 -73.9167844,11.3041064" height="11.0"/>
    <poly id="sm_full_347773092" type="building" color="0.9,0.7,0.5" fill="true" layer="1" geo="true" shape="-73.9163070,11.3048246 -73.9162552,11.3048196 -73.9162685,11.3046881 -73.9163202,11.3046931 -73.9163070,11.3048246" height="15.4"/>
    <poly id="sm_full_347775935" type="building" color="0.9,0.7,0.5" fill="true" layer="1" geo="true" shape="-73.8598850,11.2679748 -73.8598118,11.2679537 -73.8598327,11.2678842 -73.8599059,11.2679054 -73.8598850,11.2679748" height="8.7"/>
    <poly id="sm_full_347775937" type="building" color="0.9,0.7,0.5" fill="true" layer="1" geo="true" shape="-73.8479362,11.2678526 -73.8478761,11.2679016 -73.8478469,11.2678671 -73.8479070,11.2678181 -73.8479362,11.2678526" height="3.8"/>
    <poly id="sm_full_347775939" type="building" color="0.9,0.7,0.5" fill="true" layer="1" geo="true" shape="-73.8706602,11.2634130 -73.8705986,11.2633286 -73.8706557,11.2632885 -73.8707173,11.2633728 -73.8706602,11.2634130" height="21.9"/>
    <poly id="sm_full_347775941" type="building" color="0.9,0.7,0.5" fill="true" layer="1" geo="true" shape="-73.8610826,11.2682314 -73.8610268,11.2681985 -73.8610614,11.2681419 -73.8611173,11.2681748 -73.8610826,11.2682314" height="10.8"/>
    <poly id="sm_full_347775942" type="building" color="0.9,0.7,0.5" fill="true" layer="1" geo="true" shape="-73.8551749,11.2728202 -73.8550823,11.2728209 -73.8550814,11.2727177 -73.8551740,11.2727169 -73.8551749,11.2728202" height="3.5"/>
    <poly id="sm_full_347775944" type="building" color="0.9,0.7,0.5" fill="true" layer="1" geo="true" shape="-73.8603579,11.2674285 -73.8602794,11.2673755 -73.8603558,11.2672666 -73.8604343,11.2673196 -73.8603579,11.2674285" height="21.6"/>
    <poly id="sm_full_347775946" type="building" color="0.9,0.7,0.5" fill="true" layer="1" geo="true" shape="-73.8603438,11.2674908 -73.8602797,11.2675303 -73.8602322,11.2674560 -73.8602963,11.2674165 -73.8603438,11.2674908" height="9.2"/>
    <poly id="sm_full_347775947" type="building" color="0.9,0.7,0.5" fill="true" layer="1" geo="true" shape="-73.8608958,11.2673309 -73.8608395,11.2673362 -73.8608331,11.2672708 -73.8608893,11.2672655 -73.8608958,11.2673309" height="5.0"/>
    <poly id="sm_full_347775949" type="building" color="0.9,0.7,0.5" fill="true" layer="1" geo="true" shape="-73.8608341,11.2673492 -73.8607940,11.2673622 -73.8607754,11.2673068 -73.8608155,11.2672938 -73.8608341,11.2673492" height="35.4"/>
    <poly id="sm_full_347775951" type="building" color="0.9,0.7,0.5" fill="true" layer="1" geo="true" shape="-73.8604728,11.2672541 -73.8604433,11.2672868 -73.8603534,11.2672087 -73.8603829,11.2671761 -73.8604728,11.2672541" height="5.1"/>
    <poly id="sm_full_347775952" type="building" color="0.9,0.7,0.5" fill="true" layer="1" geo="true" shape="-73.8604920,11.2672485 -73.8603900,11.2671660 -73.8604279,11.2671209 -73.8605299,11.2672034 -73.8604920,11.2672485" height="4.6"/>
    <poly id="sm_full_347775953" type="building" color="0.9,0.7,0.5" fill="true" layer="1" geo="true" shape="-73.8482400,11.2559904 -73.8481881,11.2559662 -73.8482189,11.2559028 -73.8482708,11.2559270 -73.8482400,11.2559904" height="4.6"/>
    <poly id="sm_full_347775954" type="building" color="0.9,0.7,0.5" fill="true" layer="1" geo="true" shape="-73.8483470,11.2674660 -73.8482989,11.2674129 -73.8483801,11.2673423 -73.8484281,11.2673954 -73.8483470,11.2674660" height="10.8"/>
    <poly id="sm_full_347775955" type="building" color="0.9,0.7,0.5" fill="true" layer="1" geo="true" shape="-73.8607347,11.2674843 -73.8606658,11.2674729 -73.8606795,11.2673937 -73.8607483,11.2674051 -73.8607347,11.2674843" height="11.0"/>
    <poly id="sm_full_347775956" type="building" color="0.9,0.7,0.5" fill="true" layer="1" geo="true" shape="-73.8569706,11.2657360 -73.8569047,11.2657123 -73.8569374,11.2656250 -73.8570033,11.2656488 -73.8569706,11.2657360" height="18.4"/>
    <poly id="sm_full_347775957" type="building" color="0.9,0.7,0.5" fill="true" layer="1" geo="true" shape="-73.8607374,11.2676063 -73.8606872,11.2675999 -73.8606981,11.2675171 -73.8607483,11.2675235 -73.8607374,11.2676063" height="3.6"/>
    <poly id="sm_full_347775958" type="building" color="0.9,0.7,0.5" fill="true" layer="1" geo="true" shape="-73.8605224,11.2691618 -73.8604505,11.2690560 -73.8605406,11.2689972 -73.8606125,11.2691029 -73.8605224,11.2691618" height="11.7"/>
    <poly id="sm_full_347775959" type="building" color="0.9,0.7,0.5" fill="true" layer="1" geo="true" shape="-73.8541039,11.2734662 -73.8540530,11.2734539 -73.8540703,11.2733853 -73.8541212,11.2733977 -73.8541039,11.2734662" height="5.6"/>
    <poly id="sm_full_347775960" type="building" color="0.9,0.7,0.5" fill="true" layer="1" geo="true" shape="-73.8597863,11.2679261 -73.8597215,11.2679067 -73.8597514,11.2678106 -73.8598162,11.2678300 -73.8597863,11.2679261" height="18.3"/>
    <poly id="sm_full_347775961" type="building" color="0.9,0.7,0.5" fill="true" layer="1" geo="true" shape="-73.8568136,11.2655446 -73.8567485,11.2655247 -73.8567712,11.2654535 -73.8568363,11.2654734 -73.8568136,11.2655446" height="10.6"/>
    <poly id="sm_full_347775962" type="building" color="0.9,0.7,0.5" fill="true" layer="1" geo="true" shape="-73.8598569,11.2676677 -73.8597598,11.2676739 -73.8597556,11.2676105 -73.8598527,11.2676043 -73.8598569,11.2676677" height="19.9"/>
    <poly id="sm_full_347775963" type="building" color="0.9,0.7,0.5" fill="true" layer="1" geo="true" shape="-73.8705485,11.2634457 -73.8704882,11.2635049 -73.8704060,11.2634243 -73.8704664,11.2633651 -73.8705485,11.2634457" height="10.3"/>
    <poly id="sm_full_347775964" type="building" color="0.9,0.7,0.5" fill="true" layer="1" geo="true" shape="-73.8565322,11.2732069 -73.8564369,11.2732016 -73.8564396,11.2731551 -73.8565349,11.2731604 -73.8565322,11.2732069" height="9.5"/>
    <poly id="sm_full_347775965" type="building" color="0.9,0.7,0.5" fill="true" layer="1" geo="true" shape="-73.8597556,11.2676105 -73.8597598,11.2676739 -73.8596519,11.2676809 -73.8596477,11.2676175 -73.8597556,11.2676105" height="16.7"/>
    <poly id="sm_full_347775966" type="building" color="0.9,0.7,0.5" fill="true" layer="1" geo="true" shape="-73.8594920,11.2676998 -73.8593867,11.2676953 -73.8593893,11.2676366 -73.8594946,11.2676411 -73.8594920,11.2676998" height="8.1"/>
    <poly id="sm_full_347775967" type="building" color="0.9,0.7,0.5" fill="true" layer="1" geo="true" shape="-73.8706946,11.2629243 -73.8706195,11.2628486 -73.8707158,11.2627567 -73.8707909,11.2628324 -73.8706946,11.2629243" height="7.7"/>
    <poly id="sm_full_347775968" type="building" color="0.9,0.7,0.5" fill="true" layer="1" geo="true" shape="-73.8708230,11.2626650 -73.8707667,11.2625897 -73.8708488,11.2625305 -73.8709052,11.2626058 -73.8708230,11.2626650" height="7.9"/>
    <poly id="sm_full_347775969" type="building" color="0.9,0.7,0.5" fill="true" layer="1" geo="true" shape="-73.8602367,11.2675743 -73.8602677,11.2675589 -73.8602208,11.2674685 -73.8601463,11.2675056 -73.8601781,11.2675669 -73.8602216,11.2675452 -73.8602367,11.2675743" height="3.3"/>
    <poly id="sm_full_347775970" type="building" color="0.9,0.7,0.5" fill="true" layer="1" geo="true" shape="-73.8545204,11.2733706 -73.8543268,11.2733424 -73.8543417,11.2732440 -73.8544570,11.2732608 -73.8544605,11.2732378 -73.8545388,11.2732492 -73.8545204,11.2733706" height="50.2"/>
    <poly id="sm_full_347775971" type="building" color="0.9,0.7,0.5" fill="true" layer="1" geo="true" shape="-73.8477638,11.2676715 -73.8477203,11.2677103 -73.8477541,11.2677469 -73.8477145,11.2677822 -73.8476238,11.2676842 -73.8477070,11.2676101 -73.8477638,11.2676715" height="11.2"/>
    <poly id="sm_full_347775972" type="building" color="0.9,0.7,0.5" fill="true" layer="1" geo="true" shape="-73.8484882,11.2562138 -73.8485164,11.2561592 -73.8484669,11.2561346 -73.8484798,11.2561097 -73.8482400,11.2559904 -73.8481841,11.2560985 -73.8484316,11.2562215 -73.8484463,11.2561930 -73.8484882,11.2562138" height="9.0"/>
    <poly id="sm_full_347775973" type="building" color="0.9,0.7,0.5" fill="true" layer="1" geo="true" shape="-73.8478116,11.2677232 -73.8479645,11.2675872 -73.8479846,11.2676090 -73.8480742,11.2675292 -73.8480141,11.2674642 -73.8480683,11.2674160 -73.8480037,11.2673461 -73.8477070,11.2676101 -73.8477638,11.2676715 -73.8478116,11.2677232" height="11.5"/>
    <poly id="sm_full_347780754" type="building" color="0.9,0.7,0.5" fill="true" layer="1" geo="true" shape="-73.8368946,11.2478805 -73.8368409,11.2479030 -73.8367612,11.2477196 -73.8368149,11.2476972 -73.8368946,11.2478805" height="3.1"/>
    <poly id="sm_full_347780755" type="building" color="0.9,0.7,0.5" fill="true" layer="1" geo="true" shape="-73.8303566,11.2489599 -73.8302448,11.2489846 -73.8301715,11.2486651 -73.8302834,11.2486404 -73.8303566,11.2489599" height="9.3"/>
    <poly id="sm_full_347780756" type="building" color="0.9,0.7,0.5" fill="true" layer="1" geo="true" shape="-73.8307872,11.2488041 -73.8308161,11.2489417 -73.8306628,11.2489727 -73.8306339,11.2488350 -73.8307872,11.2488041" height="4.7"/>
    <poly id="sm_full_347780757" type="building" color="0.9,0.7,0.5" fill="true" layer="1" geo="true" shape="-73.8296058,11.2463963 -73.8295283,11.2463989 -73.8295249,11.2463022 -73.8296024,11.2462996 -73.8296058,11.2463963" height="23.4"/>
    <poly id="sm_full_347780758" type="building" color="0.9,0.7,0.5" fill="true" layer="1" geo="true" shape="-73.8371786,11.2487171 -73.8371425,11.2487596 -73.8369923,11.2486369 -73.8370285,11.2485943 -73.8371786,11.2487171" height="8.5"/>
    <poly id="sm_full_347780759" type="building" color="0.9,0.7,0.5" fill="true" layer="1" geo="true" shape="-73.8371919,11.2487055 -73.8371394,11.2486596 -73.8372435,11.2485453 -73.8372959,11.2485913 -73.8371919,11.2487055" height="5.3"/>
    <poly id="sm_full_347780760" type="building" color="0.9,0.7,0.5" fill="true" layer="1" geo="true" shape="-73.8296866,11.2471013 -73.8295846,11.2470661 -73.8296031,11.2470145 -73.8297051,11.2470497 -73.8296866,11.2471013" height="7.6"/>
    <poly id="sm_full_347780761" type="building" color="0.9,0.7,0.5" fill="true" layer="1" geo="true" shape="-73.8298221,11.2474085 -73.8297775,11.2473756 -73.8298160,11.2473254 -73.8298606,11.2473582 -73.8298221,11.2474085" height="18.5"/>
    <poly id="sm_full_347780762" type="building" color="0.9,0.7,0.5" fill="true" layer="1" geo="true" shape="-73.8308512,11.2511454 -73.8307920,11.2511617 -73.8307559,11.2510357 -73.8308151,11.2510194 -73.8308512,11.2511454" height="14.9"/>
    <poly id="sm_full_347780763" type="building" color="0.9,0.7,0.5" fill="true" layer="1" geo="true" shape="-73.8330121,11.2475594 -73.8328329,11.2476026 -73.8328129,11.2475226 -73.8329921,11.2474794 -73.8330121,11.2475594" height="3.9"/>
    <poly id="sm_full_347780764" type="building" color="0.9,0.7,0.5" fill="true" layer="1" geo="true" shape="-73.8385902,11.2476259 -73.8386367,11.2475131 -73.8385149,11.2474649 -73.8384994,11.2475024 -73.8383596,11.2474469 -73.8383286,11.2475222 -73.8385902,11.2476259" height="9.4"/>
    <poly id="sm_full_347780765" type="building" color="0.9,0.7,0.5" fill="true" layer="1" geo="true" shape="-73.8370522,11.2476702 -73.8369872,11.2474868 -73.8367169,11.2475789 -73.8367483,11.2476675 -73.8369637,11.2475941 -73.8369974,11.2476889 -73.8370522,11.2476702" height="5.9"/>
    <poly id="sm_full_380231615" type="building" color="0.9,0.7,0.5" fill="true" layer="1" geo="true" shape="-73.8190977,11.2258773 -73.8191369,11.2259126 -73.8191151,11.2259359 -73.8190759,11.2259007 -73.8190977,11.2258773" height="3.5"/>
    <poly id="sm_full_380231623" type="building" color="0.9,0.7,0.5" fill="true" layer="1" geo="true" shape="-73.8189770,11.2255078 -73.8188233,11.2254073 -73.8188749,11.2253315 -73.8190285,11.2254320 -73.8189770,11.2255078" height="7.1"/>
    <poly id="sm_full_380231636" type="building" color="0.9,0.7,0.5" fill="true" layer="1" geo="true" shape="-73.8084576,11.2161617 -73.8084011,11.2161997 -73.8083696,11.2161546 -73.8084261,11.2161166 -73.8084576,11.2161617" height="34.7"/>
    <poly id="sm_full_380231643" type="building" color="0.9,0.7,0.5" fill="true" layer="1" geo="true" shape="-73.8084760,11.2161668 -73.8085027,11.2161997 -73.8084449,11.2162448 -73.8084182,11.2162119 -73.8084760,11.2161668" height="18.4"/>
    <poly id="sm_full_380231659" type="building" color="0.9,0.7,0.5" fill="true" layer="1" geo="true" shape="-73.8192499,11.2258595 -73.8191908,11.2257500 -73.8192344,11.2257273 -73.8192935,11.2258368 -73.8192499,11.2258595" height="3.5"/>
    <poly id="sm_full_380231663" type="building" color="0.9,0.7,0.5" fill="true" layer="1" geo="true" shape="-73.8190509,11.2258376 -73.8190237,11.2258640 -73.8189885,11.2258292 -73.8190157,11.2258028 -73.8190509,11.2258376" height="23.0"/>
    <poly id="sm_full_380231668" type="building" color="0.9,0.7,0.5" fill="true" layer="1" geo="true" shape="-73.8191806,11.2260140 -73.8191543,11.2259831 -73.8191853,11.2259578 -73.8192116,11.2259887 -73.8191806,11.2260140" height="3.6"/>
    <poly id="sm_full_380231670" type="building" color="0.9,0.7,0.5" fill="true" layer="1" geo="true" shape="-73.8190610,11.2258504 -73.8190909,11.2258801 -73.8190668,11.2259035 -73.8190369,11.2258738 -73.8190610,11.2258504" height="5.9"/>
    <poly id="sm_full_380231673" type="building" color="0.9,0.7,0.5" fill="true" layer="1" geo="true" shape="-73.8192160,11.2260012 -73.8192495,11.2260465 -73.8192114,11.2260735 -73.8191779,11.2260282 -73.8192160,11.2260012" height="4.5"/>
    <poly id="sm_full_380231680" type="building" color="0.9,0.7,0.5" fill="true" layer="1" geo="true" shape="-73.8191543,11.2259831 -73.8191149,11.2259419 -73.8191396,11.2259192 -73.8191790,11.2259604 -73.8191543,11.2259831" height="21.4"/>
    <poly id="sm_full_462401063" type="building" color="0.9,0.7,0.5" fill="true" layer="1" geo="true" shape="-73.9105660,11.2916410 -73.9104863,11.2916708 -73.9104648,11.2916156 -73.9105446,11.2915858 -73.9105660,11.2916410" height="9.0"/>
    <poly id="sm_full_462401064" type="building" color="0.9,0.7,0.5" fill="true" layer="1" geo="true" shape="-73.9116416,11.2896394 -73.9115851,11.2896371 -73.9115877,11.2895714 -73.9116443,11.2895736 -73.9116416,11.2896394" height="15.5"/>
    <poly id="sm_full_462401065" type="building" color="0.9,0.7,0.5" fill="true" layer="1" geo="true" shape="-73.9115048,11.2894973 -73.9113736,11.2895035 -73.9113682,11.2893930 -73.9114995,11.2893868 -73.9115048,11.2894973" height="21.8"/>
    <poly id="sm_full_462401066" type="building" color="0.9,0.7,0.5" fill="true" layer="1" geo="true" shape="-73.9134628,11.2873142 -73.9133325,11.2873432 -73.9133057,11.2872275 -73.9134360,11.2871984 -73.9134628,11.2873142" height="46.5"/>
    <poly id="sm_full_462401067" type="building" color="0.9,0.7,0.5" fill="true" layer="1" geo="true" shape="-73.9163623,11.2794665 -73.9162978,11.2795752 -73.9162401,11.2795424 -73.9163046,11.2794336 -73.9163623,11.2794665" height="32.7"/>
    <poly id="sm_full_462401068" type="building" color="0.9,0.7,0.5" fill="true" layer="1" geo="true" shape="-73.9166352,11.2792185 -73.9165855,11.2793035 -73.9165259,11.2792700 -73.9165755,11.2791850 -73.9166352,11.2792185" height="3.1"/>
    <poly id="sm_full_462401069" type="building" color="0.9,0.7,0.5" fill="true" layer="1" geo="true" shape="-73.9154980,11.2809040 -73.9154255,11.2808093 -73.9155669,11.2807053 -73.9156394,11.2808000 -73.9154980,11.2809040" height="3.0"/>
    <poly id="sm_full_462401070" type="building" color="0.9,0.7,0.5" fill="true" layer="1" geo="true" shape="-73.9158346,11.2801846 -73.9157531,11.2802608 -73.9156699,11.2801753 -73.9157514,11.2800991 -73.9158346,11.2801846" height="3.0"/>
    <poly id="sm_full_462401071" type="building" color="0.9,0.7,0.5" fill="true" layer="1" geo="true" shape="-73.9159258,11.2801227 -73.9158605,11.2801849 -73.9157707,11.2800941 -73.9158359,11.2800320 -73.9159258,11.2801227" height="11.1"/>
    <poly id="sm_full_462401072" type="building" color="0.9,0.7,0.5" fill="true" layer="1" geo="true" shape="-73.9157099,11.2803240 -73.9155618,11.2804531 -73.9154974,11.2803820 -73.9156455,11.2802529 -73.9157099,11.2803240" height="3.2"/>
    <poly id="sm_full_462401073" type="building" color="0.9,0.7,0.5" fill="true" layer="1" geo="true" shape="-73.9158453,11.2806462 -73.9157737,11.2807212 -73.9156892,11.2806436 -73.9157608,11.2805686 -73.9158453,11.2806462" height="6.6"/>
    <poly id="sm_full_462401074" type="building" color="0.9,0.7,0.5" fill="true" layer="1" geo="true" shape="-73.9153840,11.2805554 -73.9153330,11.2806054 -73.9152566,11.2805305 -73.9153075,11.2804805 -73.9153840,11.2805554" height="61.4"/>
    <poly id="sm_full_462401075" type="building" color="0.9,0.7,0.5" fill="true" layer="1" geo="true" shape="-73.9152069,11.2807580 -73.9151640,11.2807988 -73.9150504,11.2806837 -73.9150933,11.2806429 -73.9152069,11.2807580" height="10.6"/>
    <poly id="sm_full_462401076" type="building" color="0.9,0.7,0.5" fill="true" layer="1" geo="true" shape="-73.9151224,11.2808001 -73.9149758,11.2808877 -73.9149423,11.2808338 -73.9150889,11.2807461 -73.9151224,11.2808001" height="5.4"/>
    <poly id="sm_full_462401077" type="building" color="0.9,0.7,0.5" fill="true" layer="1" geo="true" shape="-73.9132905,11.2811854 -73.9132074,11.2812142 -73.9131832,11.2811471 -73.9132664,11.2811183 -73.9132905,11.2811854" height="5.4"/>
    <poly id="sm_full_462401078" type="building" color="0.9,0.7,0.5" fill="true" layer="1" geo="true" shape="-73.9138283,11.2811170 -73.9136303,11.2811330 -73.9136195,11.2810055 -73.9138176,11.2809895 -73.9138283,11.2811170" height="11.5"/>
    <poly id="sm_full_462401079" type="building" color="0.9,0.7,0.5" fill="true" layer="1" geo="true" shape="-73.9139825,11.2810736 -73.9140079,11.2811714 -73.9139395,11.2811885 -73.9139141,11.2810907 -73.9139825,11.2810736" height="6.0"/>
    <poly id="sm_full_462401080" type="building" color="0.9,0.7,0.5" fill="true" layer="1" geo="true" shape="-73.9153652,11.2809789 -73.9153223,11.2809119 -73.9154125,11.2808564 -73.9154554,11.2809234 -73.9153652,11.2809789" height="8.8"/>
    <poly id="sm_full_462401081" type="building" color="0.9,0.7,0.5" fill="true" layer="1" geo="true" shape="-73.9152820,11.2809671 -73.9153770,11.2811053 -73.9153113,11.2811487 -73.9152163,11.2810105 -73.9152820,11.2809671" height="7.1"/>
    <poly id="sm_full_462401082" type="building" color="0.9,0.7,0.5" fill="true" layer="1" geo="true" shape="-73.9150031,11.2813959 -73.9149038,11.2814274 -73.9148742,11.2813379 -73.9149736,11.2813064 -73.9150031,11.2813959" height="11.0"/>
    <poly id="sm_full_462401083" type="building" color="0.9,0.7,0.5" fill="true" layer="1" geo="true" shape="-73.9149320,11.2812972 -73.9149199,11.2812065 -73.9150419,11.2811909 -73.9150540,11.2812816 -73.9149320,11.2812972" height="5.3"/>
    <poly id="sm_full_462401084" type="building" color="0.9,0.7,0.5" fill="true" layer="1" geo="true" shape="-73.9144170,11.2810999 -73.9141090,11.2811444 -73.9140889,11.2810102 -73.9143969,11.2809658 -73.9144170,11.2810999" height="49.3"/>
    <poly id="sm_full_462401085" type="building" color="0.9,0.7,0.5" fill="true" layer="1" geo="true" shape="-73.9145887,11.2810289 -73.9145257,11.2810473 -73.9144936,11.2809419 -73.9145567,11.2809235 -73.9145887,11.2810289" height="9.0"/>
    <poly id="sm_full_462401086" type="building" color="0.9,0.7,0.5" fill="true" layer="1" geo="true" shape="-73.9145216,11.2811289 -73.9144519,11.2811407 -73.9144357,11.2810489 -73.9145054,11.2810371 -73.9145216,11.2811289" height="4.2"/>
    <poly id="sm_full_462401087" type="building" color="0.9,0.7,0.5" fill="true" layer="1" geo="true" shape="-73.9147268,11.2810749 -73.9146262,11.2811078 -73.9145698,11.2809417 -73.9146704,11.2809088 -73.9147268,11.2810749" height="5.2"/>
    <poly id="sm_full_462401088" type="building" color="0.9,0.7,0.5" fill="true" layer="1" geo="true" shape="-73.9146906,11.2818851 -73.9146330,11.2819119 -73.9145955,11.2818343 -73.9146531,11.2818075 -73.9146906,11.2818851" height="8.9"/>
    <poly id="sm_full_462401089" type="building" color="0.9,0.7,0.5" fill="true" layer="1" geo="true" shape="-73.9147510,11.2819548 -73.9146945,11.2819782 -73.9146650,11.2819098 -73.9147215,11.2818864 -73.9147510,11.2819548" height="7.3"/>
    <poly id="sm_full_512695998" type="building" color="0.9,0.7,0.5" fill="true" layer="1" geo="true" shape="-73.8961671,11.2980578 -73.8960161,11.2980675 -73.8960072,11.2979340 -73.8960927,11.2979285 -73.8960969,11.2979914 -73.8961624,11.2979872 -73.8961671,11.2980578" height="5.0"/>
    <poly id="sm_full_557434085" type="building" color="0.9,0.7,0.5" fill="true" layer="1" geo="true" shape="-73.8646765,11.2775089 -73.8646437,11.2775144 -73.8646131,11.2775016 -73.8645943,11.2774746 -73.8645934,11.2774420 -73.8646107,11.2774140 -73.8646406,11.2773997 -73.8646736,11.2774034 -73.8646994,11.2774242 -73.8647096,11.2774552 -73.8647011,11.2774868 -73.8646765,11.2775089" height="11.3"/>
    <poly id="sm_full_557434086" type="building" color="0.9,0.7,0.5" fill="true" layer="1" geo="true" shape="-73.8649554,11.2778298 -73.8649756,11.2777937 -73.8648532,11.2777277 -73.8648330,11.2777638 -73.8649554,11.2778298" height="4.0"/>
    <poly id="sm_full_591865890" type="building" color="0.9,0.7,0.5" fill="true" layer="1" geo="true" shape="-73.8879906,11.2930449 -73.8880168,11.2930939 -73.8879758,11.2931149 -73.8879497,11.2930660 -73.8879906,11.2930449" height="5.2"/>
    <poly id="sm_full_591865891" type="building" color="0.9,0.7,0.5" fill="true" layer="1" geo="true" shape="-73.8882910,11.2932948 -73.8882696,11.2933546 -73.8882065,11.2933329 -73.8882279,11.2932731 -73.8882910,11.2932948" height="18.3"/>
    <poly id="sm_full_591865892" type="building" color="0.9,0.7,0.5" fill="true" layer="1" geo="true" shape="-73.8886759,11.2935769 -73.8887053,11.2936256 -73.8886081,11.2936821 -73.8885786,11.2936335 -73.8886759,11.2935769" height="5.1"/>
    <poly id="sm_full_591865893" type="building" color="0.9,0.7,0.5" fill="true" layer="1" geo="true" shape="-73.8889501,11.2932541 -73.8889735,11.2933148 -73.8889186,11.2933352 -73.8888951,11.2932744 -73.8889501,11.2932541" height="59.1"/>
    <poly id="sm_full_591865894" type="building" color="0.9,0.7,0.5" fill="true" layer="1" geo="true" shape="-73.8886631,11.2933106 -73.8887624,11.2934737 -73.8886960,11.2935125 -73.8885967,11.2933495 -73.8886631,11.2933106" height="3.3"/>
    <poly id="sm_full_591865895" type="building" color="0.9,0.7,0.5" fill="true" layer="1" geo="true" shape="-73.8896026,11.2922197 -73.8897380,11.2923473 -73.8896654,11.2924215 -73.8895299,11.2922939 -73.8896026,11.2922197" height="5.3"/>